Model {
  Name			  "FINAL_MLC_IPC_0"
  Version		  9.2
  SavedCharacterEncoding  "windows-1252"
  GraphicalInterface {
    NumRootInports	    0
    NumRootOutports	    0
    ParameterArgumentNames  ""
    ComputedModelVersion    "1.930"
    NumModelReferences	    0
    NumTestPointedSignals   7
    TestPointedSignal {
      SignalName	      ""
      FullBlockPath	      "FINAL_MLC_IPC_0/MLC_IPC"
      LogSignal		      1
      MaxPoints		      5000
      Decimation	      2
    }
    TestPointedSignal {
      SignalName	      ""
      FullBlockPath	      "FINAL_MLC_IPC_0/NREL Baseline Generator Torque Control"
      LogSignal		      1
      MaxPoints		      5000
      Decimation	      2
    }
    TestPointedSignal {
      SignalName	      "OutData"
      FullBlockPath	      "FINAL_MLC_IPC_0/OpenFAST Turbine Model"
      LogSignal		      1
      MaxPoints		      5000
      Decimation	      2
    }
    TestPointedSignal {
      SignalName	      "y"
      FullBlockPath	      "FINAL_MLC_IPC_0/OpenFAST Turbine Model"
      PortIndex		      2
      LogSignal		      1
      MaxPoints		      5000
      Decimation	      2
    }
    TestPointedSignal {
      SignalName	      ""
      FullBlockPath	      "FINAL_MLC_IPC_0/MLC_IPC/Mux"
      LogSignal		      1
      MaxPoints		      5000
      Decimation	      2
    }
    TestPointedSignal {
      SignalName	      ""
      FullBlockPath	      "FINAL_MLC_IPC_0/MLC_IPC/Mux3"
      LogSignal		      1
      MaxPoints		      5000
      Decimation	      2
    }
    TestPointedSignal {
      SignalName	      "theta_c"
      FullBlockPath	      "FINAL_MLC_IPC_0/MLC_IPC/NREL 5MW Baseline Pitch Controller"
      LogSignal		      1
      UseCustomName	      1
      LogName		      "theta"
      MaxPoints		      5000
      Decimation	      2
    }
    NumProvidedFunctions    0
    NumRequiredFunctions    0
    NumResetEvents	    0
    HasInitializeEvent	    0
    HasTerminateEvent	    0
    PreCompExecutionDomainType "Unset"
    IsExportFunctionModel   0
    NumParameterArguments   0
    NumExternalFileReferences 13
    ExternalFileReference {
      Reference		      "simulink/Discontinuities/Saturation\nDynamic"
      Path		      "FINAL_MLC_IPC_0/MLC_IPC/NREL 5MW Baseline Pitch Controller/PI Anti-Windup with rate feedforward/Sat"
      "uration Dynamic1"
      SID		      "7636"
      Type		      "LIBRARY_BLOCK"
    }
    ExternalFileReference {
      Reference		      "simulink/Logic and Bit\nOperations/Compare\nTo Zero"
      Path		      "FINAL_MLC_IPC_0/MLC_IPC/pitch_ctrl_1/Continuous Integrator Dynamic/Compare To Zero"
      SID		      "7667"
      Type		      "LIBRARY_BLOCK"
    }
    ExternalFileReference {
      Reference		      "simulink/Logic and Bit\nOperations/Compare\nTo Zero"
      Path		      "FINAL_MLC_IPC_0/MLC_IPC/pitch_ctrl_1/Continuous Integrator Dynamic/Compare To Zero1"
      SID		      "7668"
      Type		      "LIBRARY_BLOCK"
    }
    ExternalFileReference {
      Reference		      "simulink/Discontinuities/Saturation\nDynamic"
      Path		      "FINAL_MLC_IPC_0/MLC_IPC/pitch_ctrl_1/Continuous Integrator Dynamic/Saturation Dynamic"
      SID		      "7676"
      Type		      "LIBRARY_BLOCK"
    }
    ExternalFileReference {
      Reference		      "simulink/Discontinuities/Saturation\nDynamic"
      Path		      "FINAL_MLC_IPC_0/MLC_IPC/pitch_ctrl_1/Saturation Dynamic1"
      SID		      "7685"
      Type		      "LIBRARY_BLOCK"
    }
    ExternalFileReference {
      Reference		      "simulink/Logic and Bit\nOperations/Compare\nTo Zero"
      Path		      "FINAL_MLC_IPC_0/MLC_IPC/pitch_ctrl_2/Continuous Integrator Dynamic/Compare To Zero"
      SID		      "7793"
      Type		      "LIBRARY_BLOCK"
    }
    ExternalFileReference {
      Reference		      "simulink/Logic and Bit\nOperations/Compare\nTo Zero"
      Path		      "FINAL_MLC_IPC_0/MLC_IPC/pitch_ctrl_2/Continuous Integrator Dynamic/Compare To Zero1"
      SID		      "7794"
      Type		      "LIBRARY_BLOCK"
    }
    ExternalFileReference {
      Reference		      "simulink/Discontinuities/Saturation\nDynamic"
      Path		      "FINAL_MLC_IPC_0/MLC_IPC/pitch_ctrl_2/Continuous Integrator Dynamic/Saturation Dynamic"
      SID		      "7802"
      Type		      "LIBRARY_BLOCK"
    }
    ExternalFileReference {
      Reference		      "simulink/Discontinuities/Saturation\nDynamic"
      Path		      "FINAL_MLC_IPC_0/MLC_IPC/pitch_ctrl_2/Saturation Dynamic1"
      SID		      "7811"
      Type		      "LIBRARY_BLOCK"
    }
    ExternalFileReference {
      Reference		      "simulink/Logic and Bit\nOperations/Compare\nTo Zero"
      Path		      "FINAL_MLC_IPC_0/MLC_IPC/pitch_ctrl_3/Continuous Integrator Dynamic/Compare To Zero"
      SID		      "7832"
      Type		      "LIBRARY_BLOCK"
    }
    ExternalFileReference {
      Reference		      "simulink/Logic and Bit\nOperations/Compare\nTo Zero"
      Path		      "FINAL_MLC_IPC_0/MLC_IPC/pitch_ctrl_3/Continuous Integrator Dynamic/Compare To Zero1"
      SID		      "7833"
      Type		      "LIBRARY_BLOCK"
    }
    ExternalFileReference {
      Reference		      "simulink/Discontinuities/Saturation\nDynamic"
      Path		      "FINAL_MLC_IPC_0/MLC_IPC/pitch_ctrl_3/Continuous Integrator Dynamic/Saturation Dynamic"
      SID		      "7841"
      Type		      "LIBRARY_BLOCK"
    }
    ExternalFileReference {
      Reference		      "simulink/Discontinuities/Saturation\nDynamic"
      Path		      "FINAL_MLC_IPC_0/MLC_IPC/pitch_ctrl_3/Saturation Dynamic1"
      SID		      "7850"
      Type		      "LIBRARY_BLOCK"
    }
    OrderedModelArguments   1
  }
  DiagnosticSuppressor	  "on"
  WebScopes_FoundationPlugin "on"
  NotesPlugin		  "on"
  LogicAnalyzerPlugin	  "on"
  SLCCPlugin		  "on"
  ScopeRefreshTime	  0.035000
  OverrideScopeRefreshTime on
  DisableAllScopes	  off
  DataTypeOverride	  "UseLocalSettings"
  DataTypeOverrideAppliesTo "AllNumericTypes"
  MinMaxOverflowLogging	  "UseLocalSettings"
  MinMaxOverflowArchiveMode "Overwrite"
  FPTRunName		  "Run 1"
  MaxMDLFileLineLength	  120
  LastSavedArchitecture	  "win64"
  Object {
    $PropName		    "BdWindowsInfo"
    $ObjectID		    1
    $ClassName		    "Simulink.BDWindowsInfo"
    Object {
      $PropName		      "WindowsInfo"
      $ObjectID		      2
      $ClassName	      "Simulink.WindowInfo"
      IsActive		      [1]
      Location		      [222.0, 86.0, 1519.0, 873.0]
      Object {
	$PropName		"ModelBrowserInfo"
	$ObjectID		3
	$ClassName		"Simulink.ModelBrowserInfo"
	Visible			[0]
	DockPosition		"Left"
	Width			[50]
	Height			[50]
	Filter			[57]
      }
      Object {
	$PropName		"ExplorerBarInfo"
	$ObjectID		4
	$ClassName		"Simulink.ExplorerBarInfo"
	Visible			[1]
      }
      Array {
	Type			"Simulink.EditorInfo"
	Dimension		2
	Object {
	  $ObjectID		  5
	  IsActive		  [1]
	  ViewObjType		  "SimulinkSubsys"
	  LoadSaveID		  "7821"
	  Extents		  [2938.0, 1417.0]
	  ZoomFactor		  [1.25]
	  Offset		  [-376.06484375, -184.2]
	}
	Object {
	  $ObjectID		  6
	  IsActive		  [0]
	  ViewObjType		  "SimulinkSubsys"
	  LoadSaveID		  "7200"
	  Extents		  [4500.0, 3000.0]
	  ZoomFactor		  [1.25]
	  Offset		  [-5.26190476190402, 187.72857142857083]
	}
	PropName		"EditorsInfo"
      }
      Object {
	$PropName		"DockComponentsInfo"
	$ObjectID		7
	$ClassName		"Simulink.DockComponentInfo"
	Type			"GLUE2:PropertyInspector"
	ID			"Property Inspector"
	Visible			[0]
	CreateCallback		""
	UserData		""
	Floating		[0]
	DockPosition		"Right"
	Width			[320]
	Height			[240]
      }
      WindowState	      "AAAA/wAAAAD9AAAAAgAAAAAAAAC9AAAB+PwCAAAAA/sAAAAWAEQAbwBjAGsAVwBpAGQAZwBlAHQAMwEAAAAxAAAB+AAAA"
      "AAAAAAA+wAAABYARABvAGMAawBXAGkAZABnAGUAdAA0AAAAAAD/////AAAAAAAAAAD7AAAAUgBHAEwAVQBFADIAIAB0AHIAZQBlACAAYwBvAG0Ac"
      "ABvAG4AZQBuAHQALwBHAEwAVQBFADIAIAB0AHIAZQBlACAAYwBvAG0AcABvAG4AZQBuAHQAAAAAAP////8AAAD0AP///wAAAAEAAAAAAAAAAPwCA"
      "AAAAfsAAABUAEcATABVAEUAMgA6AFAAcgBvAHAAZQByAHQAeQBJAG4AcwBwAGUAYwB0AG8AcgAvAFAAcgBvAHAAZQByAHQAeQAgAEkAbgBzAHAAZ"
      "QBjAHQAbwByAAAAAAD/////AAAAbgD///8AAAvAAAAF8wAAAAEAAAACAAAAAQAAAAL8AAAAAQAAAAIAAAAP/////wAAAAAA/////wAAAAAAAAAA/"
      "////wEAAAAA/////wAAAAAAAAAA/////wAAAAAA/////wAAAAAAAAAA/////wAAAAAA/////wAAAAAAAAAA/////wAAAAAA/////wAAAAAAAAAA/"
      "////wEAAADb/////wAAAAAAAAAA/////wEAAAGG/////wAAAAAAAAAA/////wAAAAAA/////wAAAAAAAAAA/////wEAAAJh/////wAAAAAAAAAA/"
      "////wAAAAAA/////wAAAAAAAAAA/////wAAAAAA/////wAAAAAAAAAA/////wAAAAAA/////wAAAAAAAAAA/////wEAAAVu/////wAAAAAAAAAA/"
      "////wAAAAAA/////wAAAAAAAAAA/////wAAAAAA/////wAAAAAAAAAA"
    }
  }
  HideAutomaticNames	  on
  Created		  "Fri Jan 18 10:49:48 2008"
  Creator		  "Phoenix_Shao"
  UpdateHistory		  "UpdateHistoryNever"
  ModifiedByFormat	  "%<Auto>"
  LastModifiedBy	  "thisi"
  ModifiedDateFormat	  "%<Auto>"
  LastModifiedDate	  "Thu Apr 18 21:55:03 2019"
  RTWModifiedTimeStamp	  477525216
  ModelVersionFormat	  "1.%<AutoIncrement:930>"
  SampleTimeColors	  off
  SampleTimeAnnotations	  off
  LibraryLinkDisplay	  "all"
  WideLines		  off
  ShowLineDimensions	  off
  ShowPortDataTypes	  off
  ShowAllPropagatedSignalLabels	off
  PortDataTypeDisplayFormat "AliasTypeOnly"
  ShowEditTimeErrors	  on
  ShowEditTimeWarnings	  on
  ShowEditTimeAdvisorChecks off
  ShowPortUnits		  off
  ShowDesignRanges	  off
  ShowLoopsOnError	  on
  IgnoreBidirectionalLines off
  ShowStorageClass	  off
  ShowTestPointIcons	  on
  ShowSignalResolutionIcons on
  ShowViewerIcons	  on
  SortedOrder		  off
  VariantCondition	  off
  ShowSubsystemDomainSpec off
  ExecutionContextIcon	  off
  ShowLinearizationAnnotations on
  ShowVisualizeInsertedRTB on
  ShowMarkup		  on
  BlockNameDataTip	  off
  BlockParametersDataTip  off
  BlockDescriptionStringDataTip	off
  BlockVariantConditionDataTip off
  ToolBar		  on
  StatusBar		  on
  BrowserShowLibraryLinks on
  FunctionConnectors	  off
  BrowserLookUnderMasks	  off
  MultiThreadCoSim	  on
  SimulationMode	  "normal"
  VisualizeLoggedSignalsWhenLoggingToFile off
  PauseTimes		  "5"
  NumberOfSteps		  1
  SnapshotBufferSize	  10
  SnapshotInterval	  10
  NumberOfLastSnapshots	  0
  EnablePacing		  off
  PacingRate		  1
  LinearizationMsg	  "none"
  Profile		  off
  ParamWorkspaceSource	  "MATLABWorkspace"
  AccelSystemTargetFile	  "accel.tlc"
  AccelTemplateMakefile	  "accel_default_tmf"
  AccelMakeCommand	  "make_rtw"
  TryForcingSFcnDF	  off
  Object {
    $PropName		    "DataLoggingOverride"
    $ObjectID		    8
    $ClassName		    "Simulink.SimulationData.ModelLoggingInfo"
    model_		    "FINAL_MLC_IPC_0"
    Array {
      Type		      "Cell"
      Dimension		      1
      Cell		      "FINAL_MLC_IPC_0"
      PropName		      "logAsSpecifiedByModels_"
    }
    Array {
      Type		      "Cell"
      Dimension		      1
      Cell		      ""
      PropName		      "logAsSpecifiedByModelsSSIDs_"
    }
  }
  Object {
    $PropName		    "InstrumentedSignals"
    $ObjectID		    9
    $ClassName		    "Simulink.HMI.InstrumentedSignals"
    Array {
      Type		      "Struct"
      Dimension		      9
      MATStruct {
	UUID			"a7fbbccc-f759-4c6e-a2eb-db133b3109ec"
	BlockPath_		"MLC_IPC"
	SID_			"6692"
	SubPath_		""
	OutputPortIndex_	[1.0]
	LogicalPortIndex_	[0.0]
	SignalName_		""
	SubSysPath_		""
	Decimation_		[1.0]
	MaxPoints_		[0.0]
	TargetBufferedStreaming_ [0.0]
	IsFrameBased_		[0.0]
	DomainType_		""
	Array {
	  Type			  "Struct"
	  Dimension		  1
	  MATStruct {
	  }
	  PropName		  "DomainParams_"
	}
	VisualType_		""
      }
      MATStruct {
	UUID			"1f26c765-ce4d-40e6-91a6-b87292f7d10f"
	BlockPath_		"NREL Baseline Generator Torque Control"
	SID_			"7038"
	SubPath_		""
	OutputPortIndex_	[1.0]
	LogicalPortIndex_	[0.0]
	SignalName_		""
	SubSysPath_		""
	Decimation_		[1.0]
	MaxPoints_		[0.0]
	TargetBufferedStreaming_ [0.0]
	IsFrameBased_		[0.0]
	DomainType_		""
	Array {
	  Type			  "Struct"
	  Dimension		  1
	  MATStruct {
	  }
	  PropName		  "DomainParams_"
	}
	VisualType_		""
      }
      MATStruct {
	UUID			"c0da3644-7554-4952-b885-cfa49257222c"
	BlockPath_		"OpenFAST Turbine Model"
	SID_			"7200"
	SubPath_		""
	OutputPortIndex_	[1.0]
	LogicalPortIndex_	[0.0]
	SignalName_		""
	SubSysPath_		""
	Decimation_		[1.0]
	MaxPoints_		[0.0]
	TargetBufferedStreaming_ [0.0]
	IsFrameBased_		[0.0]
	DomainType_		""
	Array {
	  Type			  "Struct"
	  Dimension		  1
	  MATStruct {
	  }
	  PropName		  "DomainParams_"
	}
	VisualType_		""
      }
      MATStruct {
	UUID			"c31a9aef-e533-4f4d-a7f1-ca677290ce7d"
	BlockPath_		"OpenFAST Turbine Model"
	SID_			"7200"
	SubPath_		""
	OutputPortIndex_	[2.0]
	LogicalPortIndex_	[0.0]
	SignalName_		""
	SubSysPath_		""
	Decimation_		[1.0]
	MaxPoints_		[0.0]
	TargetBufferedStreaming_ [0.0]
	IsFrameBased_		[0.0]
	DomainType_		""
	Array {
	  Type			  "Struct"
	  Dimension		  1
	  MATStruct {
	  }
	  PropName		  "DomainParams_"
	}
	VisualType_		""
      }
      MATStruct {
	UUID			"748acbc2-6ce0-4a89-8b80-a357b997fc39"
	BlockPath_		"MLC_IPC/Mux"
	SID_			"7391"
	SubPath_		""
	OutputPortIndex_	[1.0]
	LogicalPortIndex_	[0.0]
	SignalName_		""
	SubSysPath_		""
	Decimation_		[1.0]
	MaxPoints_		[0.0]
	TargetBufferedStreaming_ [0.0]
	IsFrameBased_		[0.0]
	DomainType_		""
	Array {
	  Type			  "Struct"
	  Dimension		  1
	  MATStruct {
	  }
	  PropName		  "DomainParams_"
	}
	VisualType_		""
      }
      MATStruct {
	UUID			"305170d8-f9f8-43b4-b345-a4e6da552a51"
	BlockPath_		"MLC_IPC/Mux3"
	SID_			"7394"
	SubPath_		""
	OutputPortIndex_	[1.0]
	LogicalPortIndex_	[0.0]
	SignalName_		""
	SubSysPath_		""
	Decimation_		[1.0]
	MaxPoints_		[0.0]
	TargetBufferedStreaming_ [0.0]
	IsFrameBased_		[0.0]
	DomainType_		""
	Array {
	  Type			  "Struct"
	  Dimension		  1
	  MATStruct {
	  }
	  PropName		  "DomainParams_"
	}
	VisualType_		""
      }
      MATStruct {
	UUID			"f962e7cd-28a7-409b-b646-d9591efbb6d4"
	BlockPath_		"MLC_IPC/NREL 5MW Baseline Pitch Controller"
	SID_			"7615"
	SubPath_		""
	OutputPortIndex_	[1.0]
	LogicalPortIndex_	[0.0]
	SignalName_		""
	SubSysPath_		""
	Decimation_		[1.0]
	MaxPoints_		[0.0]
	TargetBufferedStreaming_ [0.0]
	IsFrameBased_		[0.0]
	DomainType_		""
	Array {
	  Type			  "Struct"
	  Dimension		  1
	  MATStruct {
	  }
	  PropName		  "DomainParams_"
	}
	VisualType_		""
      }
      MATStruct {
	UUID			"748acbc2-6ce0-4a89-8b80-a357b997fc39"
	BlockPath_		"MLC_IPC/Mux"
	SID_			"7611"
	SubPath_		""
	OutputPortIndex_	[1.0]
	LogicalPortIndex_	[0.0]
	SignalName_		""
	SubSysPath_		""
	Decimation_		[1.0]
	MaxPoints_		[0.0]
	TargetBufferedStreaming_ [0.0]
	IsFrameBased_		[0.0]
	DomainType_		""
	Array {
	  Type			  "Struct"
	  Dimension		  1
	  MATStruct {
	  }
	  PropName		  "DomainParams_"
	}
	VisualType_		""
      }
      MATStruct {
	UUID			"305170d8-f9f8-43b4-b345-a4e6da552a51"
	BlockPath_		"MLC_IPC/Mux3"
	SID_			"7614"
	SubPath_		""
	OutputPortIndex_	[1.0]
	LogicalPortIndex_	[0.0]
	SignalName_		""
	SubSysPath_		""
	Decimation_		[1.0]
	MaxPoints_		[0.0]
	TargetBufferedStreaming_ [0.0]
	IsFrameBased_		[0.0]
	DomainType_		""
	Array {
	  Type			  "Struct"
	  Dimension		  1
	  MATStruct {
	  }
	  PropName		  "DomainParams_"
	}
	VisualType_		""
      }
      PropName		      "Persistence"
    }
  }
  ExtModeBatchMode	  off
  ExtModeEnableFloating	  on
  ExtModeTrigType	  "manual"
  ExtModeTrigMode	  "normal"
  ExtModeTrigPort	  "1"
  ExtModeTrigElement	  "any"
  ExtModeTrigDuration	  1000
  ExtModeTrigDurationFloating "auto"
  ExtModeTrigHoldOff	  0
  ExtModeTrigDelay	  0
  ExtModeTrigDirection	  "rising"
  ExtModeTrigLevel	  0
  ExtModeArchiveMode	  "off"
  ExtModeAutoIncOneShot	  off
  ExtModeIncDirWhenArm	  off
  ExtModeAddSuffixToVar	  off
  ExtModeWriteAllDataToWs off
  ExtModeArmWhenConnect	  on
  ExtModeSkipDownloadWhenConnect off
  ExtModeLogAll		  on
  ExtModeAutoUpdateStatusClock on
  ShowModelReferenceBlockVersion off
  ShowModelReferenceBlockIO off
  OrderedModelArguments	  on
  Array {
    Type		    "Handle"
    Dimension		    2
    Simulink.ConfigSet {
      $ObjectID		      10
      Version		      "1.18.1"
      DisabledProps	      []
      Description	      ""
      Array {
	Type			"Handle"
	Dimension		9
	Simulink.SolverCC {
	  $ObjectID		  11
	  Version		  "1.18.1"
	  DisabledProps		  []
	  Description		  ""
	  StartTime		  "0.0"
	  StopTime		  "Parameter.Time.TMax"
	  AbsTol		  "auto"
	  AutoScaleAbsTol	  on
	  FixedStep		  "Parameter.Time.dt"
	  InitialStep		  "auto"
	  MaxOrder		  5
	  ZcThreshold		  "auto"
	  ConsecutiveZCsStepRelTol "10*128*eps"
	  MaxConsecutiveZCs	  "1000"
	  ExtrapolationOrder	  4
	  NumberNewtonIterations  1
	  MaxStep		  "auto"
	  MinStep		  "auto"
	  MaxConsecutiveMinStep	  "1"
	  RelTol		  "1e-3"
	  EnableMultiTasking	  on
	  ConcurrentTasks	  off
	  Solver		  "ode4"
	  SolverName		  "ode4"
	  SolverJacobianMethodControl "auto"
	  ShapePreserveControl	  "DisableAll"
	  ZeroCrossControl	  "UseLocalSettings"
	  ZeroCrossAlgorithm	  "Nonadaptive"
	  AlgebraicLoopSolver	  "TrustRegion"
	  SolverInfoToggleStatus  off
	  IsAutoAppliedInSIP	  off
	  SolverResetMethod	  "Fast"
	  PositivePriorityOrder	  off
	  AutoInsertRateTranBlk	  off
	  SampleTimeConstraint	  "Unconstrained"
	  InsertRTBMode		  "Whenever possible"
	  SampleTimeProperty	  []
	  DecoupledContinuousIntegration off
	  MinimalZcImpactIntegration off
	}
	Simulink.DataIOCC {
	  $ObjectID		  12
	  Version		  "1.18.1"
	  DisabledProps		  []
	  Description		  ""
	  Decimation		  "1"
	  ExternalInput		  "[t, u]"
	  FinalStateName	  "xFinal"
	  InitialState		  "xInitial"
	  LimitDataPoints	  on
	  MaxDataPoints		  "1000000"
	  LoadExternalInput	  off
	  LoadInitialState	  off
	  SaveFinalState	  off
	  SaveCompleteFinalSimState off
	  SaveFormat		  "Array"
	  SignalLoggingSaveFormat "ModelDataLogs"
	  SaveOutput		  on
	  SaveState		  off
	  SignalLogging		  on
	  DSMLogging		  on
	  InspectSignalLogs	  off
	  VisualizeSimOutput	  on
	  StreamToWorkspace	  off
	  StreamVariableName	  "streamout"
	  SaveTime		  on
	  ReturnWorkspaceOutputs  off
	  StateSaveName		  "xout"
	  TimeSaveName		  "tout"
	  OutputSaveName	  "yout"
	  SignalLoggingName	  "logsout"
	  DSMLoggingName	  "dsmout"
	  OutputOption		  "RefineOutputTimes"
	  OutputTimes		  "[]"
	  ReturnWorkspaceOutputsName "out"
	  Refine		  "1"
	  LoggingToFile		  off
	  DatasetSignalFormat	  "timeseries"
	  LoggingFileName	  "out.mat"
	  LoggingIntervals	  "[-inf, inf]"
	}
	Simulink.OptimizationCC {
	  $ObjectID		  13
	  Version		  "1.18.1"
	  Array {
	    Type		    "Cell"
	    Dimension		    8
	    Cell		    "ZeroExternalMemoryAtStartup"
	    Cell		    "ZeroInternalMemoryAtStartup"
	    Cell		    "NoFixptDivByZeroProtection"
	    Cell		    "OptimizeModelRefInitCode"
	    Cell		    "BooleansAsBitfields"
	    Cell		    "PassReuseOutputArgsAs"
	    Cell		    "PassReuseOutputArgsThreshold"
	    Cell		    "UseSpecifiedMinMax"
	    PropName		    "DisabledProps"
	  }
	  Description		  ""
	  BlockReduction	  on
	  BooleanDataType	  on
	  ConditionallyExecuteInputs on
	  DefaultParameterBehavior "Tunable"
	  UseDivisionForNetSlopeComputation "off"
	  UseFloatMulNetSlope	  off
	  DefaultUnderspecifiedDataType	"double"
	  UseSpecifiedMinMax	  off
	  InlineInvariantSignals  off
	  OptimizeBlockIOStorage  on
	  BufferReuse		  on
	  EnhancedBackFolding	  off
	  CachingGlobalReferences off
	  GlobalBufferReuse	  on
	  StrengthReduction	  off
	  AdvancedOptControl	  ""
	  ExpressionFolding	  on
	  BooleansAsBitfields	  off
	  BitfieldContainerType	  "uint_T"
	  EnableMemcpy		  on
	  MemcpyThreshold	  64
	  PassReuseOutputArgsAs	  "Structure reference"
	  PassReuseOutputArgsThreshold 12
	  ExpressionDepthLimit	  2147483647
	  LocalBlockOutputs	  on
	  RollThreshold		  5
	  StateBitsets		  off
	  DataBitsets		  off
	  ActiveStateOutputEnumStorageType "Native Integer"
	  ZeroExternalMemoryAtStartup on
	  ZeroInternalMemoryAtStartup on
	  InitFltsAndDblsToZero	  on
	  NoFixptDivByZeroProtection off
	  EfficientFloat2IntCast  off
	  EfficientMapNaN2IntZero on
	  LifeSpan		  "inf"
	  MaxStackSize		  "Inherit from target"
	  BufferReusableBoundary  on
	  SimCompilerOptimization "off"
	  AccelVerboseBuild	  off
	  OptimizeBlockOrder	  "off"
	  OptimizeDataStoreBuffers on
	  BusAssignmentInplaceUpdate on
	  DifferentSizesBufferReuse off
	  OptimizationLevel	  "level2"
	  OptimizationPriority	  "Balanced"
	  OptimizationCustomize	  on
	  UseRowMajorAlgorithm	  off
	  LabelGuidedReuse	  off
	}
	Simulink.DebuggingCC {
	  $ObjectID		  14
	  Version		  "1.18.1"
	  Array {
	    Type		    "Cell"
	    Dimension		    1
	    Cell		    "UseOnlyExistingSharedCode"
	    PropName		    "DisabledProps"
	  }
	  Description		  ""
	  RTPrefix		  "error"
	  ConsistencyChecking	  "none"
	  ArrayBoundsChecking	  "none"
	  SignalInfNanChecking	  "none"
	  StringTruncationChecking "error"
	  SignalRangeChecking	  "none"
	  ReadBeforeWriteMsg	  "UseLocalSettings"
	  WriteAfterWriteMsg	  "UseLocalSettings"
	  WriteAfterReadMsg	  "UseLocalSettings"
	  AlgebraicLoopMsg	  "warning"
	  ArtificialAlgebraicLoopMsg "warning"
	  SaveWithDisabledLinksMsg "warning"
	  SaveWithParameterizedLinksMsg	"none"
	  CheckSSInitialOutputMsg on
	  UnderspecifiedInitializationDetection	"Classic"
	  MergeDetectMultiDrivingBlocksExec "none"
	  CheckExecutionContextPreStartOutputMsg off
	  CheckExecutionContextRuntimeOutputMsg	off
	  SignalResolutionControl "TryResolveAllWithWarning"
	  BlockPriorityViolationMsg "warning"
	  MinStepSizeMsg	  "warning"
	  TimeAdjustmentMsg	  "none"
	  MaxConsecutiveZCsMsg	  "error"
	  MaskedZcDiagnostic	  "warning"
	  IgnoredZcDiagnostic	  "warning"
	  SolverPrmCheckMsg	  "warning"
	  InheritedTsInSrcMsg	  "warning"
	  MultiTaskDSMMsg	  "warning"
	  MultiTaskCondExecSysMsg "none"
	  MultiTaskRateTransMsg	  "error"
	  SingleTaskRateTransMsg  "none"
	  TasksWithSamePriorityMsg "warning"
	  ExportedTasksRateTransMsg "none"
	  SigSpecEnsureSampleTimeMsg "warning"
	  CheckMatrixSingularityMsg "none"
	  IntegerOverflowMsg	  "warning"
	  Int32ToFloatConvMsg	  "warning"
	  ParameterDowncastMsg	  "error"
	  ParameterOverflowMsg	  "error"
	  ParameterUnderflowMsg	  "none"
	  ParameterPrecisionLossMsg "warning"
	  ParameterTunabilityLossMsg "warning"
	  FixptConstUnderflowMsg  "none"
	  FixptConstOverflowMsg	  "none"
	  FixptConstPrecisionLossMsg "none"
	  UnderSpecifiedDataTypeMsg "none"
	  UnnecessaryDatatypeConvMsg "none"
	  VectorMatrixConversionMsg "none"
	  InvalidFcnCallConnMsg	  "error"
	  FcnCallInpInsideContextMsg "warning"
	  SignalLabelMismatchMsg  "none"
	  UnconnectedInputMsg	  "warning"
	  UnconnectedOutputMsg	  "warning"
	  UnconnectedLineMsg	  "warning"
	  UseOnlyExistingSharedCode "error"
	  SFcnCompatibilityMsg	  "none"
	  FrameProcessingCompatibilityMsg "error"
	  UniqueDataStoreMsg	  "none"
	  BusObjectLabelMismatch  "warning"
	  RootOutportRequireBusObject "warning"
	  AssertControl		  "UseLocalSettings"
	  AllowSymbolicDim	  off
	  RowMajorDimensionSupport off
	  ModelReferenceIOMsg	  "none"
	  ModelReferenceMultiInstanceNormalModeStructChecksumCheck "error"
	  ModelReferenceVersionMismatchMessage "none"
	  ModelReferenceIOMismatchMessage "none"
	  UnknownTsInhSupMsg	  "warning"
	  ModelReferenceDataLoggingMessage "warning"
	  ModelReferenceSymbolNameMessage "warning"
	  ModelReferenceExtraNoncontSigs "error"
	  StateNameClashWarn	  "warning"
	  SimStateInterfaceChecksumMismatchMsg "warning"
	  SimStateOlderReleaseMsg "error"
	  ChecksumConsistencyForSSReuse	"none"
	  LibraryContextMissingDiagnostic "warning"
	  MatchCodeGenerationContextForUpdateDiagram "none"
	  InitInArrayFormatMsg	  "warning"
	  StrictBusMsg		  "ErrorLevel1"
	  BusNameAdapt		  "WarnAndRepair"
	  NonBusSignalsTreatedAsBus "none"
	  SymbolicDimMinMaxWarning "warning"
	  LossOfSymbolicDimsSimulationWarning "warning"
	  LossOfSymbolicDimsCodeGenerationWarning "error"
	  SymbolicDimsDataTypeCodeGenerationDiagnostic "error"
	  BlockIODiagnostic	  "none"
	  SFUnusedDataAndEventsDiag "warning"
	  SFUnexpectedBacktrackingDiag "warning"
	  SFInvalidInputDataAccessInChartInitDiag "warning"
	  SFNoUnconditionalDefaultTransitionDiag "warning"
	  SFTransitionOutsideNaturalParentDiag "warning"
	  SFUnreachableExecutionPathDiag "warning"
	  SFUndirectedBroadcastEventsDiag "warning"
	  SFTransitionActionBeforeConditionDiag	"warning"
	  SFOutputUsedAsStateInMooreChartDiag "error"
	  SFTemporalDelaySmallerThanSampleTimeDiag "warning"
	  SFSelfTransitionDiag	  "warning"
	  SFExecutionAtInitializationDiag "none"
	  SFMachineParentedDataDiag "warning"
	  IntegerSaturationMsg	  "warning"
	  AllowedUnitSystems	  "all"
	  UnitsInconsistencyMsg	  "warning"
	  AllowAutomaticUnitConversions	on
	  RCSCRenamedMsg	  "warning"
	  RCSCObservableMsg	  "warning"
	  ForceCombineOutputUpdateInSim	off
	  UnitDatabase		  ""
	  UnderSpecifiedDimensionMsg "none"
	}
	Simulink.HardwareCC {
	  $ObjectID		  15
	  Version		  "1.18.1"
	  DisabledProps		  []
	  Description		  ""
	  ProdBitPerChar	  8
	  ProdBitPerShort	  16
	  ProdBitPerInt		  32
	  ProdBitPerLong	  32
	  ProdBitPerLongLong	  64
	  ProdBitPerFloat	  32
	  ProdBitPerDouble	  64
	  ProdBitPerPointer	  32
	  ProdBitPerSizeT	  32
	  ProdBitPerPtrDiffT	  32
	  ProdLargestAtomicInteger "Char"
	  ProdLargestAtomicFloat  "None"
	  ProdIntDivRoundTo	  "Undefined"
	  ProdEndianess		  "Unspecified"
	  ProdWordSize		  32
	  ProdShiftRightIntArith  on
	  ProdLongLongMode	  off
	  ProdHWDeviceType	  "32-bit Generic"
	  TargetBitPerChar	  8
	  TargetBitPerShort	  16
	  TargetBitPerInt	  32
	  TargetBitPerLong	  32
	  TargetBitPerLongLong	  64
	  TargetBitPerFloat	  32
	  TargetBitPerDouble	  64
	  TargetBitPerPointer	  32
	  TargetBitPerSizeT	  32
	  TargetBitPerPtrDiffT	  32
	  TargetLargestAtomicInteger "Char"
	  TargetLargestAtomicFloat "None"
	  TargetShiftRightIntArith on
	  TargetLongLongMode	  off
	  TargetIntDivRoundTo	  "Undefined"
	  TargetEndianess	  "Unspecified"
	  TargetWordSize	  32
	  TargetPreprocMaxBitsSint 32
	  TargetPreprocMaxBitsUint 32
	  TargetHWDeviceType	  "32-bit Generic"
	  TargetUnknown		  off
	  ProdEqTarget		  on
	  UseEmbeddedCoderFeatures on
	  UseSimulinkCoderFeatures on
	}
	Simulink.ModelReferenceCC {
	  $ObjectID		  16
	  Version		  "1.18.1"
	  DisabledProps		  []
	  Description		  ""
	  UpdateModelReferenceTargets "IfOutOfDateOrStructuralChange"
	  EnableRefExpFcnMdlSchedulingChecks on
	  CheckModelReferenceTargetMessage "error"
	  EnableParallelModelReferenceBuilds off
	  ParallelModelReferenceErrorOnInvalidPool on
	  ParallelModelReferenceMATLABWorkerInit "None"
	  ModelReferenceNumInstancesAllowed "Multi"
	  PropagateVarSize	  "Infer from blocks in model"
	  ModelDependencies	  ""
	  ModelReferencePassRootInputsByReference on
	  ModelReferenceMinAlgLoopOccurrences off
	  PropagateSignalLabelsOutOfModel off
	  SupportModelReferenceSimTargetCustomCode off
	}
	Simulink.SFSimCC {
	  $ObjectID		  17
	  Version		  "1.18.1"
	  DisabledProps		  []
	  Description		  ""
	  SimCustomSourceCode	  ""
	  SimCustomHeaderCode	  ""
	  SimCustomInitializer	  ""
	  SimCustomTerminator	  ""
	  SimReservedNameArray	  []
	  SimUserSources	  ""
	  SimUserIncludeDirs	  ""
	  SimUserLibraries	  ""
	  SimUserDefines	  ""
	  SimCustomCompilerFlags  ""
	  SimCustomLinkerFlags	  ""
	  SFSimEcho		  on
	  SimCtrlC		  on
	  SimIntegrity		  on
	  SimUseLocalCustomCode	  off
	  SimParseCustomCode	  on
	  SimAnalyzeCustomCode	  off
	  SimBuildMode		  "sf_incremental_build"
	  SimGenImportedTypeDefs  off
	  ModelFunctionsGlobalVisibility "on"
	  CompileTimeRecursionLimit 50
	  EnableRuntimeRecursion  on
	  MATLABDynamicMemAlloc	  on
	  MATLABDynamicMemAllocThreshold 65536
	  CustomCodeFunctionArrayLayout	[]
	  DefaultCustomCodeFunctionArrayLayout "NotSpecified"
	}
	Simulink.RTWCC {
	  $BackupClass		  "Simulink.RTWCC"
	  $ObjectID		  18
	  Version		  "1.18.1"
	  Array {
	    Type		    "Cell"
	    Dimension		    16
	    Cell		    "IncludeHyperlinkInReport"
	    Cell		    "GenerateTraceInfo"
	    Cell		    "GenerateTraceReport"
	    Cell		    "GenerateTraceReportSl"
	    Cell		    "GenerateTraceReportSf"
	    Cell		    "GenerateTraceReportEml"
	    Cell		    "PortableWordSizes"
	    Cell		    "GenerateWebview"
	    Cell		    "GenerateCodeMetricsReport"
	    Cell		    "GenerateCodeReplacementReport"
	    Cell		    "GenerateMissedCodeReplacementReport"
	    Cell		    "GenerateErtSFunction"
	    Cell		    "CreateSILPILBlock"
	    Cell		    "CodeExecutionProfiling"
	    Cell		    "CodeProfilingSaveOptions"
	    Cell		    "CodeProfilingInstrumentation"
	    PropName		    "DisabledProps"
	  }
	  SystemTargetFile	  "grt.tlc"
	  HardwareBoard		  "None"
	  TLCOptions		  ""
	  GenCodeOnly		  off
	  MakeCommand		  "make_rtw"
	  GenerateMakefile	  on
	  PackageGeneratedCodeAndArtifacts off
	  PackageName		  ""
	  TemplateMakefile	  "grt_default_tmf"
	  PostCodeGenCommand	  ""
	  Description		  ""
	  GenerateReport	  off
	  RTWVerbose		  on
	  RetainRTWFile		  off
	  RTWBuildHooks		  []
	  ProfileTLC		  off
	  TLCDebug		  off
	  TLCCoverage		  off
	  TLCAssert		  off
	  RTWUseLocalCustomCode	  off
	  RTWUseSimCustomCode	  off
	  CustomSourceCode	  ""
	  CustomHeaderCode	  ""
	  CustomInclude		  ""
	  CustomSource		  ""
	  CustomLibrary		  ""
	  CustomDefine		  ""
	  CustomBLASCallback	  ""
	  CustomLAPACKCallback	  ""
	  CustomFFTCallback	  ""
	  CustomInitializer	  ""
	  CustomTerminator	  ""
	  Toolchain		  "Automatically locate an installed toolchain"
	  BuildConfiguration	  "Faster Builds"
	  CustomToolchainOptions  []
	  IncludeHyperlinkInReport off
	  LaunchReport		  off
	  PortableWordSizes	  off
	  CreateSILPILBlock	  "None"
	  CodeExecutionProfiling  off
	  CodeExecutionProfileVariable "executionProfile"
	  CodeProfilingSaveOptions "SummaryOnly"
	  CodeProfilingInstrumentation "off"
	  SILDebugging		  off
	  TargetLang		  "C"
	  IncludeBusHierarchyInRTWFileBlockHierarchyMap	off
	  GenerateTraceInfo	  off
	  GenerateTraceReport	  off
	  GenerateTraceReportSl	  off
	  GenerateTraceReportSf	  off
	  GenerateTraceReportEml  off
	  GenerateWebview	  off
	  GenerateCodeMetricsReport off
	  GenerateCodeReplacementReport	off